Version 4
SHEET 1 880 680
WIRE 144 -128 80 -128
WIRE 144 -112 144 -128
WIRE 272 -64 192 -64
WIRE 496 -64 352 -64
WIRE 80 -48 80 -128
WIRE 128 -48 80 -48
WIRE 128 -32 128 -48
WIRE 144 -32 128 -32
WIRE 144 -16 144 -32
WIRE 288 -16 144 -16
WIRE 336 32 336 -16
WIRE 336 32 80 32
WIRE 80 48 80 32
WIRE 208 48 80 48
WIRE 208 80 208 48
WIRE 224 80 208 80
WIRE 496 80 496 -64
WIRE 528 80 496 80
WIRE 336 96 288 96
WIRE 416 96 400 96
WIRE 496 96 496 80
WIRE 224 112 208 112
WIRE 192 128 192 -64
WIRE 192 128 80 128
WIRE 208 128 208 112
WIRE 208 128 192 128
WIRE 80 144 80 128
WIRE 80 256 80 224
FLAG 80 336 0
FLAG 528 80 V_out
IOPIN 528 80 Out
FLAG 144 -112 0
SYMBOL res 64 128 R0
SYMATTR InstName R1
SYMATTR Value 10k
SYMBOL res 64 32 R0
SYMATTR InstName R2
SYMATTR Value 200k
SYMBOL OP07 256 32 R0
SYMATTR InstName U1
SYMBOL res 64 -64 R0
SYMATTR InstName R3
SYMATTR Value 10k
SYMBOL cap 400 80 R90
WINDOW 0 0 32 VBottom 2
WINDOW 3 32 32 VTop 2
SYMATTR InstName C1
SYMATTR Value 0.1µ
SYMBOL ind 512 80 R90
WINDOW 0 5 56 VBottom 2
WINDOW 3 32 56 VTop 2
SYMATTR InstName L1
SYMATTR Value 159.2µ
SYMBOL voltage 80 240 R0
SYMATTR InstName Vin
SYMATTR Value 1
SYMATTR Value2 AC 1
SYMBOL e 256 -64 R270
SYMATTR InstName E1
SYMATTR Value 2
TEXT 264 288 Left 2 !.ac lin 1000 1Hz 1000kHz
